Version 4
SHEET 1 1700 680
WIRE 720 128 560 128
WIRE 992 128 816 128
WIRE 1152 128 992 128
WIRE 1264 128 1152 128
WIRE 1632 128 1360 128
WIRE 992 240 992 128
WIRE 560 272 560 128
WIRE 1152 288 1152 128
WIRE 1632 288 1632 128
WIRE 800 368 800 176
WIRE 992 368 992 320
WIRE 992 368 800 368
WIRE 1104 368 992 368
WIRE 800 416 800 368
WIRE 992 416 992 368
WIRE 1152 416 1152 384
WIRE 1344 416 1344 176
WIRE 1344 416 1152 416
WIRE 1344 448 1344 416
WIRE 560 560 560 352
WIRE 800 560 800 496
WIRE 992 560 992 480
WIRE 1344 560 1344 528
WIRE 1632 560 1632 368
FLAG 800 560 0
FLAG 992 560 0
FLAG 1344 560 0
FLAG 560 560 0
FLAG 1632 560 0
SYMBOL pmos 720 176 R270
SYMATTR InstName M1
SYMBOL pmos 1104 288 R0
SYMATTR InstName M2
SYMBOL pmos 1264 176 R270
SYMATTR InstName M3
SYMBOL zener 1008 480 R180
WINDOW 0 24 64 Left 2
WINDOW 3 24 0 Left 2
SYMATTR InstName D1
SYMATTR Value 1N750
SYMBOL res 976 224 R0
SYMATTR InstName R1
SYMATTR Value 10K
SYMBOL res 784 400 R0
SYMATTR InstName R2
SYMATTR Value 10K
SYMBOL res 1328 432 R0
SYMATTR InstName R3
SYMATTR Value 10K
SYMBOL voltage 560 256 R0
WINDOW 123 0 0 Left 0
WINDOW 39 0 0 Left 0
SYMATTR InstName V1
SYMATTR Value SINE(0 6 10)
SYMBOL res 1616 272 R0
SYMATTR InstName R4
SYMATTR Value 100
TEXT 526 584 Left 2 !.tran 0 10s 0 0.1
